2
                    3D
 Schrodinger Suite 2022-3.
  0  0  0     0  0            999 V3000
M  V30 BEGIN CTAB
M  V30 COUNTS 39 41 0 0 0
M  V30 BEGIN ATOM
M  V30 1 C  -15.0283 -0.2282 10.5630 0
M  V30 2 C  -15.1368 -0.2733 8.0696 0
M  V30 3 C  -14.7198 0.3439 5.7603 0
M  V30 4 C  -14.7817 -0.8832 11.7588 0
M  V30 5 C  -14.4577 -2.2640 9.4188 0
M  V30 6 C  -13.7362 -4.3288 10.5771 0
M  V30 7 C  -14.3666 -2.2118 11.8043 0
M  V30 8 C  -12.7286 -4.7073 11.4164 0
M  V30 9 C  -11.1068 -6.2567 12.3421 0
M  V30 10 O  -12.1470 -8.0633 10.5910 0
M  V30 11 C  -12.6441 -6.9321 10.5768 0
M  V30 12 N  -12.2096 -5.9694 11.4142 0
M  V30 13 C  -13.6878 -6.6381 9.6828 0
M  V30 14 N  -14.3346 -7.3857 8.7381 0
M  V30 15 C  -15.2754 -6.6065 8.1327 0
M  V30 16 C  -15.2589 -5.3657 8.6641 0
M  V30 17 C  -14.2569 -5.3477 9.6554 0
M  V30 18 C  -14.2091 -2.9200 10.6136 0
M  V30 19 C  -14.8509 -0.9243 9.3684 0
M  V30 20 O  -16.1952 0.3129 7.9636 0
M  V30 21 N  -14.3010 -0.3146 7.0006 0
M  V30 22 C  -12.9810 -0.9677 7.0021 0
M  V30 23 H  -15.3515 0.8023 10.5684 0
M  V30 24 H  -13.9448 0.2213 5.0037 0
M  V30 25 H  -15.6475 -0.1049 5.4054 0
M  V30 26 H  -14.8789 1.4057 5.9479 0
M  V30 27 H  -14.9103 -0.3625 12.6962 0
M  V30 28 H  -14.3493 -2.7895 8.4815 0
M  V30 29 H  -14.1699 -2.6839 12.7556 0
M  V30 30 H  -12.3128 -3.9969 12.1156 0
M  V30 31 H  -10.7975 -7.2958 12.2291 0
M  V30 32 H  -10.2646 -5.6013 12.1204 0
M  V30 33 H  -11.4392 -6.0865 13.3662 0
M  V30 34 H  -14.0763 -8.3515 8.5947 0
M  V30 35 H  -15.8952 -7.0183 7.3499 0
M  V30 36 H  -15.9450 -4.6142 8.3024 0
M  V30 37 H  -12.5183 -0.8554 6.0215 0
M  V30 38 H  -12.3467 -0.5044 7.7578 0
M  V30 39 H  -13.0996 -2.0274 7.2280 0
M  V30 END ATOM
M  V30 BEGIN BOND
M  V30 1 1 1 4
M  V30 2 2 1 19
M  V30 3 1 1 23
M  V30 4 1 2 19
M  V30 5 2 2 20
M  V30 6 1 2 21
M  V30 7 1 3 21
M  V30 8 1 3 24
M  V30 9 1 3 25
M  V30 10 1 3 26
M  V30 11 2 4 7
M  V30 12 1 4 27
M  V30 13 2 5 18
M  V30 14 1 5 19
M  V30 15 1 5 28
M  V30 16 2 6 8
M  V30 17 1 6 17
M  V30 18 1 6 18
M  V30 19 1 7 18
M  V30 20 1 7 29
M  V30 21 1 8 12
M  V30 22 1 8 30
M  V30 23 1 9 12
M  V30 24 1 9 31
M  V30 25 1 9 32
M  V30 26 1 9 33
M  V30 27 2 10 11
M  V30 28 1 11 12
M  V30 29 1 11 13
M  V30 30 1 13 14
M  V30 31 2 13 17
M  V30 32 1 14 15
M  V30 33 1 14 34
M  V30 34 2 15 16
M  V30 35 1 15 35
M  V30 36 1 16 17
M  V30 37 1 16 36
M  V30 38 1 21 22
M  V30 39 1 22 37
M  V30 40 1 22 38
M  V30 41 1 22 39
M  V30 END BOND
M  V30 END CTAB
M  END
$$$$
8
                    3D
 Schrodinger Suite 2022-3.
  0  0  0     0  0            999 V3000
M  V30 BEGIN CTAB
M  V30 COUNTS 48 50 0 0 0
M  V30 BEGIN ATOM
M  V30 1 C  -10.9941 -6.2043 12.2035 0
M  V30 2 C  -12.6220 -6.8961 10.5577 0
M  V30 3 C  -12.6881 -4.6572 11.3772 0
M  V30 4 C  -13.7447 -4.3262 10.5887 0
M  V30 5 C  -14.2919 -5.3537 9.7005 0
M  V30 6 C  -15.3327 -5.3893 8.7545 0
M  V30 7 C  -15.3619 -6.6288 8.2267 0
M  V30 8 C  -13.7074 -6.6286 9.7026 0
M  V30 9 C  -11.2903 -6.1485 13.6793 0
M  V30 10 C  -10.9837 -5.0159 15.8471 0
M  V30 11 C  -10.7531 -5.1546 14.3588 0
M  V30 12 N  -12.1624 -5.9204 11.3608 0
M  V30 13 N  -14.3812 -7.3959 8.7850 0
M  V30 14 O  -12.0977 -8.0137 10.5576 0
M  V30 15 C  -14.2404 -2.9403 10.5922 0
M  V30 16 C  -14.4293 -2.2308 11.7756 0
M  V30 17 C  -14.8581 -0.9215 11.7395 0
M  V30 18 C  -15.0831 -0.2879 10.5298 0
M  V30 19 C  -14.8693 -0.9826 9.3381 0
M  V30 20 C  -14.4469 -2.3108 9.3674 0
M  V30 21 C  -15.1244 -0.2936 8.0538 0
M  V30 22 O  -16.1765 0.2899 7.9199 0
M  V30 23 N  -14.2348 -0.2805 7.0355 0
M  V30 24 C  -14.5873 0.4334 5.8059 0
M  V30 25 C  -12.9307 -0.9429 7.1080 0
M  V30 26 H  -10.5964 -7.1873 11.9512 0
M  V30 27 H  -10.1977 -5.4984 11.9674 0
M  V30 28 H  -12.2494 -3.9178 12.0308 0
M  V30 29 H  -15.9306 -4.5078 8.5761 0
M  V30 30 H  -16.0962 -6.8785 7.4752 0
M  V30 31 H  -11.0020 -7.0940 14.1388 0
M  V30 32 H  -12.3700 -6.1424 13.8283 0
M  V30 33 H  -10.4572 -4.1359 16.2164 0
M  V30 34 H  -12.0508 -4.9084 16.0415 0
M  V30 35 H  -10.6095 -5.9034 16.3575 0
M  V30 36 H  -11.0137 -4.2143 13.8729 0
M  V30 37 H  -9.6806 -5.1345 14.1651 0
M  V30 38 H  -14.2636 -8.3558 8.4937 0
M  V30 39 H  -14.2397 -2.7064 12.7265 0
M  V30 40 H  -15.0212 -0.3812 12.6603 0
M  V30 41 H  -15.4219 0.7374 10.5121 0
M  V30 42 H  -14.2799 -2.8514 8.4474 0
M  V30 43 H  -13.7703 0.3491 5.0893 0
M  V30 44 H  -15.4908 -0.0017 5.3789 0
M  V30 45 H  -14.7634 1.4847 6.0334 0
M  V30 46 H  -12.3945 -0.7942 6.1707 0
M  V30 47 H  -12.3521 -0.5184 7.9283 0
M  V30 48 H  -13.0736 -2.0099 7.2789 0
M  V30 END ATOM
M  V30 BEGIN BOND
M  V30 1 1 1 9
M  V30 2 1 1 12
M  V30 3 1 1 26
M  V30 4 1 1 27
M  V30 5 1 2 8
M  V30 6 1 2 12
M  V30 7 2 2 14
M  V30 8 2 3 4
M  V30 9 1 3 12
M  V30 10 1 3 28
M  V30 11 1 4 5
M  V30 12 1 4 15
M  V30 13 1 5 6
M  V30 14 2 5 8
M  V30 15 2 6 7
M  V30 16 1 6 29
M  V30 17 1 7 13
M  V30 18 1 7 30
M  V30 19 1 8 13
M  V30 20 1 9 11
M  V30 21 1 9 31
M  V30 22 1 9 32
M  V30 23 1 10 11
M  V30 24 1 10 33
M  V30 25 1 10 34
M  V30 26 1 10 35
M  V30 27 1 11 36
M  V30 28 1 11 37
M  V30 29 1 13 38
M  V30 30 2 15 16
M  V30 31 1 15 20
M  V30 32 1 16 17
M  V30 33 1 16 39
M  V30 34 2 17 18
M  V30 35 1 17 40
M  V30 36 1 18 19
M  V30 37 1 18 41
M  V30 38 2 19 20
M  V30 39 1 19 21
M  V30 40 1 20 42
M  V30 41 2 21 22
M  V30 42 1 21 23
M  V30 43 1 23 24
M  V30 44 1 23 25
M  V30 45 1 24 43
M  V30 46 1 24 44
M  V30 47 1 24 45
M  V30 48 1 25 46
M  V30 49 1 25 47
M  V30 50 1 25 48
M  V30 END BOND
M  V30 END CTAB
M  END
$$$$
