
     RDKit          3D

 12 12  0  0  0  0  0  0  0  0999 V2000
    0.7943   -1.1490    0.0150 C   0  0  0  0  0  0  0  0  0  0  0  0
    1.3607    0.1298   -0.0022 C   0  0  0  0  0  0  0  0  0  0  0  0
    0.5898    1.2681   -0.0170 C   0  0  0  0  0  0  0  0  0  0  0  0
   -0.7866    1.1450   -0.0149 C   0  0  0  0  0  0  0  0  0  0  0  0
   -1.3413   -0.1124    0.0019 C   0  0  0  0  0  0  0  0  0  0  0  0
   -0.5806   -1.2656    0.0170 C   0  0  0  0  0  0  0  0  0  0  0  0
    1.4026   -2.0428    0.0267 H   0  0  0  0  0  0  0  0  0  0  0  0
    2.4183    0.2113   -0.0036 H   0  0  0  0  0  0  0  0  0  0  0  0
    1.0075    2.2686   -0.0304 H   0  0  0  0  0  0  0  0  0  0  0  0
   -1.4182    2.0293   -0.0265 H   0  0  0  0  0  0  0  0  0  0  0  0
   -2.4222   -0.2172    0.0037 H   0  0  0  0  0  0  0  0  0  0  0  0
   -1.0241   -2.2652    0.0304 H   0  0  0  0  0  0  0  0  0  0  0  0
  1  2  2  0
  2  3  1  0
  3  4  2  0
  4  5  1  0
  5  6  2  0
  6  1  1  0
  1  7  1  0
  2  8  1  0
  3  9  1  0
  4 10  1  0
  5 11  1  0
  6 12  1  0
M  END
$$$$

     RDKit          3D

 12 12  0  0  0  0  0  0  0  0999 V2000
    0.7943   -1.1490    0.0150 C   0  0  0  0  0  0  0  0  0  0  0  0
    1.3607    0.1298   -0.0022 C   0  0  0  0  0  0  0  0  0  0  0  0
    0.5898    1.2681   -0.0170 C   0  0  0  0  0  0  0  0  0  0  0  0
   -0.7866    1.1450   -0.0149 C   0  0  0  0  0  0  0  0  0  0  0  0
   -1.3413   -0.1124    0.0019 C   0  0  0  0  0  0  0  0  0  0  0  0
   -0.5806   -1.2656    0.0170 C   0  0  0  0  0  0  0  0  0  0  0  0
    1.4026   -2.0428    0.0267 H   0  0  0  0  0  0  0  0  0  0  0  0
    2.4183    0.2113   -0.0036 H   0  0  0  0  0  0  0  0  0  0  0  0
    1.0075    2.2686   -0.0304 H   0  0  0  0  0  0  0  0  0  0  0  0
   -1.4182    2.0293   -0.0265 H   0  0  0  0  0  0  0  0  0  0  0  0
   -2.4222   -0.2172    0.0037 H   0  0  0  0  0  0  0  0  0  0  0  0
   -1.0241   -2.2652    0.0304 F   0  0  0  0  0  0  0  0  0  0  0  0
  1  2  2  0
  2  3  1  0
  3  4  2  0
  4  5  1  0
  5  6  2  0
  6  1  1  0
  1  7  1  0
  2  8  1  0
  3  9  1  0
  4 10  1  0
  5 11  1  0
  6 12  1  0
M  END
$$$$