30_core
                    3D
 Structure written by MMmdl.
 12 12  0  0  1  0            999 V2000
   24.8372   -0.0289  -11.4983 C   0  0  0  0  0  0
   26.0452   -0.2007  -10.8100 C   0  0  0  0  0  0
   26.0339   -0.7721   -9.5247 C   0  0  0  0  0  0
   24.8128   -1.0812   -8.9236 C   0  0  0  0  0  0
   23.6194   -0.9276   -9.6191 C   0  0  0  0  0  0
   23.6217   -0.4318  -10.9248 C   0  0  0  0  0  0
   24.7836   -1.4731   -7.9183 H   0  0  0  0  0  0
   22.6985   -1.2282   -9.1371 H   0  0  0  0  0  0
   22.7057   -0.3562  -11.4919 H   0  0  0  0  0  0
   24.8347    0.4179  -12.4815 H   0  0  0  0  0  0
   26.9751    0.1047  -11.2667 H   0  0  0  0  0  0
   26.9644   -0.9676   -9.0125 H   0  0  0  0  0  0
  1  2  2  0  0  0
  1  6  1  0  0  0
  1 10  1  0  0  0
  2  3  1  0  0  0
  2 11  1  0  0  0
  3  4  2  0  0  0
  3 12  1  0  0  0
  4  5  1  0  0  0
  4  7  1  0  0  0
  5  6  2  0  0  0
  5  8  1  0  0  0
  6  9  1  0  0  0
M  END
$$$$
30_large
                    3D
 Structure written by MMmdl.
 24 24  0  0  1  0            999 V2000
   24.8372   -0.0289  -11.4983 C   0  0  0  0  0  0
   26.0452   -0.2007  -10.8100 C   0  0  0  0  0  0
   26.0339   -0.7721   -9.5247 C   0  0  0  0  0  0
   24.8128   -1.0812   -8.9236 C   0  0  0  0  0  0
   23.6194   -0.9276   -9.6191 C   0  0  0  0  0  0
   23.6217   -0.4318  -10.9248 C   0  0  0  0  0  0
   24.7836   -1.4731   -7.9183 H   0  0  0  0  0  0
   22.6985   -1.2282   -9.1371 H   0  0  0  0  0  0
   22.3155   -0.3240  -11.7335 C   0  0  0  0  0  0
   24.8347    0.4179  -12.4815 H   0  0  0  0  0  0
   26.9751    0.1047  -11.2667 H   0  0  0  0  0  0
   27.3607   -1.0509   -8.7943 C   0  0  0  0  0  0
   27.1535   -1.4913   -7.8190 H   0  0  0  0  0  0
   27.9625   -1.7423   -9.3842 H   0  0  0  0  0  0
   28.1318    0.2690   -8.6074 C   0  0  0  0  0  0
   29.0795    0.0698   -8.0857 H   0  0  0  0  0  0
   21.1383   -0.8280  -10.8781 C   0  0  0  0  0  0
   22.1437    0.7162  -12.0102 H   0  0  0  0  0  0
   22.3948   -0.9310  -12.6353 H   0  0  0  0  0  0
   27.5306    0.9602   -8.0168 H   0  0  0  0  0  0
   28.3398    0.7092   -9.5826 H   0  0  0  0  0  0
   20.2138   -0.7517  -11.4505 H   0  0  0  0  0  0
   21.3088   -1.8684  -10.6013 H   0  0  0  0  0  0
   21.0578   -0.2212   -9.9762 H   0  0  0  0  0  0
  1  2  2  0  0  0
  1  6  1  0  0  0
  1 10  1  0  0  0
  2  3  1  0  0  0
  2 11  1  0  0  0
  3  4  2  0  0  0
  3 12  1  0  0  0
  4  5  1  0  0  0
  4  7  1  0  0  0
  5  6  2  0  0  0
  5  8  1  0  0  0
  6  9  1  0  0  0
  9 17  1  0  0  0
  9 18  1  0  0  0
  9 19  1  0  0  0
 12 13  1  0  0  0
 12 14  1  0  0  0
 12 15  1  0  0  0
 15 16  1  0  0  0
 15 20  1  0  0  0
 15 21  1  0  0  0
 17 22  1  0  0  0
 17 23  1  0  0  0
 17 24  1  0  0  0
M  END
$$$$
